Version 4
SHEET 1 880 680
WIRE 32 64 -48 64
WIRE 128 64 112 64
WIRE 160 64 128 64
WIRE 304 64 240 64
WIRE -48 128 -48 64
WIRE 304 128 304 64
WIRE -48 256 -48 208
WIRE 304 256 304 192
WIRE 304 256 -48 256
WIRE -48 272 -48 256
FLAG -48 64 a
FLAG 128 64 b
FLAG 304 64 c
FLAG -48 272 0
SYMBOL voltage -48 112 R0
WINDOW 123 0 0 Left 2
WINDOW 39 0 0 Left 2
SYMATTR InstName V1
SYMATTR Value SINE(0 311 50)
SYMBOL res 128 48 R90
WINDOW 0 0 56 VBottom 2
WINDOW 3 32 56 VTop 2
SYMATTR InstName R1
SYMATTR Value 100
SYMBOL ind 144 80 R270
WINDOW 0 32 56 VTop 2
WINDOW 3 5 56 VBottom 2
SYMATTR InstName L1
SYMATTR Value 480mH
SYMBOL cap 288 128 R0
SYMATTR InstName C1
SYMATTR Value 0.016mF
TEXT -16 280 Left 2 !.tran 0 1.03 1 200
TEXT -160 136 Left 2 ;Sine
TEXT -160 168 Left 2 ;311 Vp
TEXT -160 200 Left 2 ;50 Hz
